xflr5 v6.51

D06_Test_Wing
T2-VLM2
QInf  =   10.000000 m/s
Alpha =    0.000000
Beta  =    0.000°
Phi   =    0.000°
Ctrl  =    0.000
CL    =    0.046691
Cy    =    0.000000
Cd    =    0.000129     ICd   =    0.000129     PCd   =    0.000000
Cl   =  8.1708e-16
Cm   =  -0.0493586
ICn   =   -0.000000     PCn   =   -0.000000 
XCP   =    6.748669     YCP   =   -0.000000     ZCP   =    2.054584  
XNP   =    0.000000
Bending = 2891.883514

Main Wing
  y-span        Chord      Ai         Cl        PCd          ICd        CmGeom    CmAirf@chord/4    XTrtop    XTrBot      XCP       BM
  -25.8208     2.4513     0.516   -0.009019    0.000000    0.000081    0.106043   -0.007223     0.0000    0.0000   -0.1522    0.0000
  -25.6444     2.4964     0.471   -0.014381    0.000000    0.000118    0.127577   -0.009138     0.0000    0.0000   -0.1637   -0.0215
  -25.2929     2.5862     0.427   -0.017387    0.000000    0.000130    0.135892   -0.010640     0.0000    0.0000   -0.1845   -0.2725
  -24.7686     2.7202     0.369   -0.016678    0.000000    0.000107    0.120638   -0.010589     0.0000    0.0000   -0.2034   -1.2919
  -24.0750     2.8974     0.301   -0.012255    0.000000    0.000064    0.086230   -0.010060     0.0000    0.0000   -0.2893   -3.8372
  -23.2170     3.1167     0.232   -0.004967    0.000000    0.000020    0.042085   -0.009530     0.0000    0.0000   -0.6093   -8.4625
  -22.2004     3.3765     0.168    0.003983    0.000000   -0.000012   -0.001596   -0.009135     0.0000    0.0000   -4.7213   -14.8642
  -21.0322     3.6751     0.111    0.013494    0.000000   -0.000026   -0.038000   -0.008861     0.0000    0.0000    1.3593   -21.1487
  -19.7203     4.0103     0.062    0.022768    0.000000   -0.000025   -0.064244   -0.008668     0.0000    0.0000    0.7437   -23.1663
  -18.2737     4.3800     0.019    0.031303    0.000000   -0.000010   -0.080263   -0.008524     0.0000    0.0000    0.5735   -14.0103
  -16.7022     4.7816    -0.019    0.038817    0.000000    0.000013   -0.087445   -0.008410     0.0000    0.0000    0.4969   16.2468
  -15.0167     5.2124    -0.055    0.045170    0.000000    0.000043   -0.087719   -0.008315     0.0000    0.0000    0.4550   80.5275
  -13.2286     5.6693    -0.087    0.050315    0.000000    0.000077   -0.083015   -0.008233     0.0000    0.0000    0.4299   194.4008
  -11.3501     6.1494    -0.118    0.054247    0.000000    0.000111   -0.075025   -0.008163     0.0000    0.0000    0.4143   375.4007
   -9.3941     6.6493    -0.146    0.056980    0.000000    0.000146   -0.065129   -0.008110     0.0000    0.0000    0.4050   642.0282
   -7.3739     7.1655    -0.173    0.058527    0.000000    0.000177   -0.054409   -0.008090     0.0000    0.0000    0.4007   1012.4730
   -5.3034     7.6947    -0.197    0.058891    0.000000    0.000203   -0.043716   -0.008156     0.0000    0.0000    0.4017   1503.1216
   -3.1966     8.2331    -0.216    0.058071    0.000000    0.000219   -0.033786   -0.008455     0.0000    0.0000    0.4114   2126.9408
   -1.0680     8.7771    -0.235    0.056127    0.000000    0.000230   -0.025446   -0.009354     0.0000    0.0000    0.4395   2891.8835
    1.0680     8.7771    -0.235    0.056127    0.000000    0.000230   -0.025446   -0.009354     0.0000    0.0000    0.4395   2891.8835
    3.1966     8.2331    -0.216    0.058071    0.000000    0.000219   -0.033786   -0.008455     0.0000    0.0000    0.4114   2126.9408
    5.3034     7.6947    -0.197    0.058891    0.000000    0.000203   -0.043716   -0.008156     0.0000    0.0000    0.4017   1503.1216
    7.3739     7.1655    -0.173    0.058527    0.000000    0.000177   -0.054409   -0.008090     0.0000    0.0000    0.4007   1012.4730
    9.3941     6.6493    -0.146    0.056980    0.000000    0.000146   -0.065129   -0.008110     0.0000    0.0000    0.4050   642.0282
   11.3501     6.1494    -0.118    0.054247    0.000000    0.000111   -0.075025   -0.008163     0.0000    0.0000    0.4143   375.4007
   13.2286     5.6693    -0.087    0.050315    0.000000    0.000077   -0.083015   -0.008233     0.0000    0.0000    0.4299   194.4008
   15.0167     5.2124    -0.055    0.045170    0.000000    0.000043   -0.087719   -0.008315     0.0000    0.0000    0.4550   80.5275
   16.7022     4.7816    -0.019    0.038817    0.000000    0.000013   -0.087445   -0.008410     0.0000    0.0000    0.4969   16.2468
   18.2737     4.3800     0.019    0.031303    0.000000   -0.000010   -0.080263   -0.008524     0.0000    0.0000    0.5735   -14.0103
   19.7203     4.0103     0.062    0.022768    0.000000   -0.000025   -0.064244   -0.008668     0.0000    0.0000    0.7437   -23.1663
   21.0322     3.6751     0.111    0.013494    0.000000   -0.000026   -0.038000   -0.008861     0.0000    0.0000    1.3593   -21.1487
   22.2004     3.3765     0.168    0.003983    0.000000   -0.000012   -0.001596   -0.009135     0.0000    0.0000   -4.7213   -14.8642
   23.2170     3.1167     0.232   -0.004967    0.000000    0.000020    0.042085   -0.009530     0.0000    0.0000   -0.6093   -8.4625
   24.0750     2.8974     0.301   -0.012255    0.000000    0.000064    0.086230   -0.010060     0.0000    0.0000   -0.2893   -3.8372
   24.7686     2.7202     0.369   -0.016678    0.000000    0.000107    0.120638   -0.010589     0.0000    0.0000   -0.2034   -1.2919
   25.2929     2.5862     0.427   -0.017387    0.000000    0.000130    0.135892   -0.010640     0.0000    0.0000   -0.1845   -0.2725
   25.6444     2.4964     0.471   -0.014381    0.000000    0.000118    0.127577   -0.009138     0.0000    0.0000   -0.1637   -0.0215
   25.8208     2.4513     0.516   -0.009019    0.000000    0.000081    0.106043   -0.007223     0.0000    0.0000   -0.1522    0.0000


Main Wing Cp Coefficients
 Panel     CtrlPt.x        CtrlPt.y        CtrlPt.z       Nx      Ny       Nz        Area       Cp
Main WingCp Coefficients
Strip 1
  13       1.789e+01      -2.581e+01       6.766e-01           0.241           0.057          -0.969       3.251e-03          0.1149
  14       1.782e+01      -2.581e+01       6.647e-01           0.141           0.022          -0.990       9.354e-03          0.0625
  15       1.769e+01      -2.581e+01       6.460e-01           0.133           0.020          -0.991       1.497e-02          0.0333
  16       1.749e+01      -2.581e+01       6.214e-01           0.120           0.016          -0.993       1.969e-02         -0.0044
  17       1.725e+01      -2.581e+01       5.945e-01           0.103           0.011          -0.995       2.324e-02         -0.0376
  18       1.698e+01      -2.581e+01       5.691e-01           0.082           0.003          -0.997       2.543e-02         -0.0663
  19       1.669e+01      -2.582e+01       5.489e-01           0.058          -0.007          -0.998       2.614e-02         -0.0903
  20       1.639e+01      -2.582e+01       5.359e-01           0.031          -0.018          -0.999       2.535e-02         -0.1107
  21       1.612e+01      -2.582e+01       5.310e-01           0.003          -0.031          -1.000       2.311e-02         -0.1322
  22       1.588e+01      -2.582e+01       5.338e-01          -0.029          -0.048          -0.998       1.954e-02         -0.1656
  23       1.569e+01      -2.582e+01       5.435e-01          -0.076          -0.074          -0.994       1.488e-02         -0.2373
  24       1.555e+01      -2.581e+01       5.592e-01          -0.174          -0.129          -0.976       9.449e-03         -0.5047
  25       1.548e+01      -2.581e+01       5.838e-01          -0.608          -0.380          -0.697       4.453e-03         -0.1940
  26       1.548e+01      -2.581e+01       6.244e-01          -0.735          -0.428           0.526       6.092e-03          0.5302
  27       1.555e+01      -2.581e+01       6.784e-01          -0.462          -0.260           0.848       1.099e-02         -0.0464
  28       1.569e+01      -2.581e+01       7.272e-01          -0.230          -0.122           0.965       1.539e-02         -0.2658
  29       1.588e+01      -2.581e+01       7.575e-01          -0.092          -0.043           0.995       1.964e-02         -0.2242
  30       1.612e+01      -2.581e+01       7.721e-01          -0.033          -0.010           0.999       2.311e-02         -0.1545
  31       1.639e+01      -2.581e+01       7.767e-01          -0.002           0.008           1.000       2.532e-02         -0.1166
  32       1.669e+01      -2.581e+01       7.734e-01           0.025           0.022           0.999       2.608e-02         -0.0930
  33       1.698e+01      -2.581e+01       7.627e-01           0.049           0.035           0.998       2.535e-02         -0.0692
  34       1.725e+01      -2.581e+01       7.463e-01           0.071           0.045           0.996       2.315e-02         -0.0411
  35       1.749e+01      -2.581e+01       7.272e-01           0.088           0.053           0.995       1.961e-02         -0.0086
  36       1.769e+01      -2.581e+01       7.089e-01           0.101           0.059           0.993       1.490e-02          0.0286
  37       1.782e+01      -2.581e+01       6.946e-01           0.110           0.063           0.992       9.313e-03          0.0591
  38       1.789e+01      -2.581e+01       6.850e-01           0.212           0.098           0.972       3.227e-03          0.1062
Strip 2
  39       1.783e+01      -2.564e+01       6.719e-01           0.241           0.057          -0.969       9.908e-03          0.1526
  40       1.776e+01      -2.564e+01       6.599e-01           0.140           0.022          -0.990       2.851e-02          0.0906
  41       1.762e+01      -2.564e+01       6.409e-01           0.132           0.020          -0.991       4.561e-02          0.0441
  42       1.742e+01      -2.564e+01       6.160e-01           0.119           0.016          -0.993       6.000e-02         -0.0067
  43       1.718e+01      -2.564e+01       5.888e-01           0.102           0.010          -0.995       7.083e-02         -0.0489
  44       1.690e+01      -2.564e+01       5.633e-01           0.081           0.002          -0.997       7.751e-02         -0.0847
  45       1.660e+01      -2.564e+01       5.428e-01           0.057          -0.007          -0.998       7.968e-02         -0.1146
  46       1.631e+01      -2.564e+01       5.299e-01           0.030          -0.019          -0.999       7.727e-02         -0.1410
  47       1.603e+01      -2.564e+01       5.252e-01           0.002          -0.032          -0.999       7.043e-02         -0.1707
  48       1.578e+01      -2.564e+01       5.282e-01          -0.030          -0.048          -0.998       5.958e-02         -0.2168
  49       1.558e+01      -2.564e+01       5.382e-01          -0.077          -0.074          -0.994       4.537e-02         -0.3002
  50       1.544e+01      -2.564e+01       5.544e-01          -0.174          -0.130          -0.976       2.881e-02         -0.5730
  51       1.537e+01      -2.564e+01       5.795e-01          -0.608          -0.380          -0.697       1.358e-02         -0.2876
  52       1.537e+01      -2.564e+01       6.208e-01          -0.735          -0.428           0.526       1.856e-02          0.6110
  53       1.544e+01      -2.564e+01       6.758e-01          -0.461          -0.259           0.848       3.347e-02          0.0176
  54       1.558e+01      -2.563e+01       7.254e-01          -0.230          -0.122           0.966       4.691e-02         -0.3192
  55       1.578e+01      -2.563e+01       7.560e-01          -0.091          -0.042           0.995       5.987e-02         -0.2984
  56       1.603e+01      -2.563e+01       7.707e-01          -0.032          -0.009           0.999       7.045e-02         -0.2072
  57       1.631e+01      -2.563e+01       7.752e-01          -0.001           0.008           1.000       7.718e-02         -0.1528
  58       1.660e+01      -2.563e+01       7.715e-01           0.025           0.023           0.999       7.951e-02         -0.1200
  59       1.690e+01      -2.563e+01       7.604e-01           0.050           0.035           0.998       7.728e-02         -0.0890
  60       1.718e+01      -2.563e+01       7.434e-01           0.072           0.046           0.996       7.059e-02         -0.0532
  61       1.742e+01      -2.563e+01       7.238e-01           0.089           0.054           0.995       5.977e-02         -0.0107
  62       1.762e+01      -2.563e+01       7.050e-01           0.102           0.060           0.993       4.543e-02          0.0407
  63       1.776e+01      -2.564e+01       6.903e-01           0.111           0.063           0.992       2.839e-02          0.0882
  64       1.783e+01      -2.564e+01       6.804e-01           0.213           0.099           0.972       9.839e-03          0.1450
Strip 3
  65       1.771e+01      -2.528e+01       6.625e-01           0.239           0.057          -0.969       1.702e-02          0.1655
  66       1.764e+01      -2.528e+01       6.501e-01           0.139           0.021          -0.990       4.899e-02          0.1023
  67       1.749e+01      -2.528e+01       6.308e-01           0.130           0.019          -0.991       7.838e-02          0.0498
  68       1.729e+01      -2.529e+01       6.053e-01           0.118           0.015          -0.993       1.031e-01         -0.0096
  69       1.703e+01      -2.529e+01       5.775e-01           0.101           0.010          -0.995       1.217e-01         -0.0608
  70       1.674e+01      -2.529e+01       5.515e-01           0.080           0.002          -0.997       1.332e-01         -0.1044
  71       1.644e+01      -2.529e+01       5.309e-01           0.055          -0.008          -0.998       1.369e-01         -0.1411
  72       1.613e+01      -2.529e+01       5.180e-01           0.028          -0.020          -0.999       1.328e-01         -0.1730
  73       1.584e+01      -2.529e+01       5.135e-01           0.001          -0.033          -0.999       1.211e-01         -0.2056
  74       1.559e+01      -2.529e+01       5.171e-01          -0.031          -0.049          -0.998       1.024e-01         -0.2467
  75       1.538e+01      -2.529e+01       5.278e-01          -0.079          -0.075          -0.994       7.801e-02         -0.3156
  76       1.524e+01      -2.529e+01       5.447e-01          -0.176          -0.130          -0.976       4.954e-02         -0.5705
  77       1.516e+01      -2.529e+01       5.709e-01          -0.608          -0.380          -0.697       2.337e-02         -0.2869
  78       1.516e+01      -2.529e+01       6.137e-01          -0.735          -0.428           0.527       3.186e-02          0.6740
  79       1.524e+01      -2.528e+01       6.706e-01          -0.460          -0.259           0.849       5.747e-02          0.0718
  80       1.538e+01      -2.528e+01       7.217e-01          -0.228          -0.121           0.966       8.058e-02         -0.3108
  81       1.559e+01      -2.528e+01       7.531e-01          -0.089          -0.041           0.995       1.029e-01         -0.3252
  82       1.584e+01      -2.528e+01       7.679e-01          -0.031          -0.008           0.999       1.211e-01         -0.2472
  83       1.613e+01      -2.528e+01       7.721e-01           0.000           0.009           1.000       1.327e-01         -0.1905
  84       1.644e+01      -2.528e+01       7.678e-01           0.027           0.023           0.999       1.367e-01         -0.1505
  85       1.674e+01      -2.528e+01       7.557e-01           0.052           0.036           0.998       1.328e-01         -0.1116
  86       1.703e+01      -2.528e+01       7.377e-01           0.073           0.047           0.996       1.214e-01         -0.0671
  87       1.729e+01      -2.528e+01       7.169e-01           0.091           0.054           0.994       1.028e-01         -0.0150
  88       1.749e+01      -2.528e+01       6.971e-01           0.104           0.060           0.993       7.811e-02          0.0454
  89       1.764e+01      -2.528e+01       6.817e-01           0.112           0.064           0.992       4.881e-02          0.0988
  90       1.771e+01      -2.528e+01       6.713e-01           0.214           0.099           0.972       1.692e-02          0.1581
Strip 4
  91       1.753e+01      -2.476e+01       6.485e-01           0.237           0.056          -0.970       2.488e-02          0.1651
  92       1.745e+01      -2.476e+01       6.356e-01           0.136           0.021          -0.990       7.162e-02          0.1014
  93       1.730e+01      -2.476e+01       6.156e-01           0.128           0.018          -0.992       1.146e-01          0.0465
  94       1.709e+01      -2.476e+01       5.893e-01           0.115           0.014          -0.993       1.507e-01         -0.0170
  95       1.682e+01      -2.476e+01       5.607e-01           0.099           0.009          -0.995       1.780e-01         -0.0728
  96       1.651e+01      -2.476e+01       5.340e-01           0.077           0.001          -0.997       1.948e-01         -0.1205
  97       1.619e+01      -2.476e+01       5.130e-01           0.053          -0.009          -0.999       2.002e-01         -0.1596
  98       1.587e+01      -2.476e+01       5.001e-01           0.026          -0.021          -0.999       1.942e-01         -0.1909
  99       1.556e+01      -2.476e+01       4.962e-01          -0.001          -0.034          -0.999       1.771e-01         -0.2185
 100       1.530e+01      -2.476e+01       5.005e-01          -0.034          -0.050          -0.998       1.498e-01         -0.2521
 101       1.508e+01      -2.476e+01       5.122e-01          -0.081          -0.076          -0.994       1.141e-01         -0.3138
 102       1.493e+01      -2.476e+01       5.304e-01          -0.178          -0.132          -0.975       7.251e-02         -0.5580
 103       1.485e+01      -2.476e+01       5.580e-01          -0.609          -0.381          -0.696       3.424e-02         -0.2701
 104       1.485e+01      -2.476e+01       6.031e-01          -0.735          -0.428           0.527       4.653e-02          0.6853
 105       1.493e+01      -2.476e+01       6.627e-01          -0.459          -0.258           0.850       8.392e-02          0.0777
 106       1.508e+01      -2.476e+01       7.162e-01          -0.226          -0.120           0.967       1.178e-01         -0.3113
 107       1.530e+01      -2.476e+01       7.488e-01          -0.087          -0.040           0.995       1.504e-01         -0.3313
 108       1.556e+01      -2.476e+01       7.637e-01          -0.028          -0.007           1.000       1.771e-01         -0.2606
 109       1.587e+01      -2.476e+01       7.674e-01           0.002           0.010           1.000       1.940e-01         -0.2096
 110       1.619e+01      -2.476e+01       7.622e-01           0.029           0.024           0.999       1.999e-01         -0.1707
 111       1.651e+01      -2.476e+01       7.488e-01           0.054           0.037           0.998       1.943e-01         -0.1288
 112       1.682e+01      -2.476e+01       7.292e-01           0.076           0.047           0.996       1.775e-01         -0.0795
 113       1.709e+01      -2.476e+01       7.067e-01           0.093           0.055           0.994       1.503e-01         -0.0222
 114       1.730e+01      -2.476e+01       6.854e-01           0.106           0.061           0.993       1.143e-01          0.0425
 115       1.745e+01      -2.476e+01       6.688e-01           0.114           0.065           0.991       7.142e-02          0.0985
 116       1.753e+01      -2.476e+01       6.577e-01           0.216           0.100           0.971       2.476e-02          0.1591
Strip 5
 117       1.729e+01      -2.407e+01       6.299e-01           0.235           0.055          -0.970       3.373e-02          0.1614
 118       1.721e+01      -2.407e+01       6.165e-01           0.134           0.020          -0.991       9.714e-02          0.0978
 119       1.705e+01      -2.407e+01       5.955e-01           0.126           0.017          -0.992       1.554e-01          0.0419
 120       1.682e+01      -2.407e+01       5.681e-01           0.113           0.013          -0.994       2.045e-01         -0.0232
 121       1.653e+01      -2.407e+01       5.384e-01           0.096           0.008          -0.995       2.414e-01         -0.0805
 122       1.621e+01      -2.407e+01       5.108e-01           0.075          -0.000          -0.997       2.642e-01         -0.1290
 123       1.586e+01      -2.407e+01       4.893e-01           0.050          -0.010          -0.999       2.717e-01         -0.1673
 124       1.552e+01      -2.407e+01       4.766e-01           0.024          -0.022          -0.999       2.635e-01         -0.1960
 125       1.520e+01      -2.407e+01       4.732e-01          -0.004          -0.035          -0.999       2.403e-01         -0.2200
 126       1.491e+01      -2.407e+01       4.785e-01          -0.036          -0.052          -0.998       2.033e-01         -0.2497
 127       1.468e+01      -2.407e+01       4.916e-01          -0.084          -0.078          -0.993       1.549e-01         -0.3063
 128       1.452e+01      -2.407e+01       5.114e-01          -0.180          -0.133          -0.975       9.848e-02         -0.5383
 129       1.444e+01      -2.407e+01       5.411e-01          -0.609          -0.381          -0.695       4.656e-02         -0.2416
 130       1.444e+01      -2.407e+01       5.891e-01          -0.734          -0.428           0.527       6.303e-02          0.6848
 131       1.452e+01      -2.407e+01       6.524e-01          -0.458          -0.257           0.851       1.137e-01          0.0685
 132       1.468e+01      -2.407e+01       7.089e-01          -0.224          -0.119           0.967       1.596e-01         -0.3204
 133       1.491e+01      -2.407e+01       7.430e-01          -0.085          -0.039           0.996       2.040e-01         -0.3381
 134       1.520e+01      -2.406e+01       7.581e-01          -0.026          -0.006           1.000       2.402e-01         -0.2670
 135       1.552e+01      -2.406e+01       7.612e-01           0.005           0.011           1.000       2.633e-01         -0.2175
 136       1.586e+01      -2.406e+01       7.548e-01           0.032           0.026           0.999       2.713e-01         -0.1799
 137       1.621e+01      -2.406e+01       7.396e-01           0.057           0.038           0.998       2.638e-01         -0.1381
 138       1.653e+01      -2.407e+01       7.179e-01           0.078           0.048           0.996       2.410e-01         -0.0875
 139       1.682e+01      -2.407e+01       6.932e-01           0.095           0.056           0.994       2.041e-01         -0.0283
 140       1.705e+01      -2.407e+01       6.699e-01           0.108           0.062           0.992       1.551e-01          0.0382
 141       1.721e+01      -2.407e+01       6.518e-01           0.117           0.066           0.991       9.696e-02          0.0954
 142       1.729e+01      -2.407e+01       6.398e-01           0.218           0.101           0.971       3.363e-02          0.1570
Strip 6
 143       1.699e+01      -2.321e+01       6.070e-01           0.232           0.054          -0.971       4.381e-02          0.1583
 144       1.691e+01      -2.321e+01       5.928e-01           0.131           0.019          -0.991       1.262e-01          0.0951
 145       1.673e+01      -2.321e+01       5.707e-01           0.123           0.016          -0.992       2.019e-01          0.0390
 146       1.648e+01      -2.321e+01       5.420e-01           0.110           0.012          -0.994       2.657e-01         -0.0264
 147       1.618e+01      -2.321e+01       5.108e-01           0.093           0.006          -0.996       3.137e-01         -0.0838
 148       1.583e+01      -2.321e+01       4.821e-01           0.072          -0.002          -0.997       3.433e-01         -0.1317
 149       1.546e+01      -2.321e+01       4.601e-01           0.047          -0.012          -0.999       3.531e-01         -0.1687
 150       1.509e+01      -2.321e+01       4.474e-01           0.021          -0.024          -1.000       3.425e-01         -0.1954
 151       1.474e+01      -2.321e+01       4.447e-01          -0.007          -0.037          -0.999       3.123e-01         -0.2170
 152       1.443e+01      -2.321e+01       4.514e-01          -0.039          -0.053          -0.998       2.643e-01         -0.2438
 153       1.419e+01      -2.321e+01       4.662e-01          -0.086          -0.079          -0.993       2.015e-01         -0.2956
 154       1.401e+01      -2.321e+01       4.879e-01          -0.183          -0.134          -0.974       1.281e-01         -0.5137
 155       1.392e+01      -2.321e+01       5.201e-01          -0.610          -0.381          -0.695       6.064e-02         -0.2064
 156       1.392e+01      -2.321e+01       5.718e-01          -0.734          -0.428           0.527       8.177e-02          0.6796
 157       1.401e+01      -2.321e+01       6.396e-01          -0.456          -0.256           0.852       1.475e-01          0.0530
 158       1.419e+01      -2.321e+01       6.998e-01          -0.221          -0.117           0.968       2.073e-01         -0.3335
 159       1.443e+01      -2.321e+01       7.358e-01          -0.082          -0.037           0.996       2.651e-01         -0.3467
 160       1.474e+01      -2.321e+01       7.512e-01          -0.023          -0.004           1.000       3.122e-01         -0.2731
 161       1.509e+01      -2.321e+01       7.536e-01           0.008           0.013           1.000       3.422e-01         -0.2226
 162       1.546e+01      -2.321e+01       7.457e-01           0.035           0.027           0.999       3.527e-01         -0.1847
 163       1.583e+01      -2.321e+01       7.283e-01           0.059           0.039           0.997       3.429e-01         -0.1428
 164       1.618e+01      -2.321e+01       7.039e-01           0.081           0.050           0.995       3.133e-01         -0.0917
 165       1.648e+01      -2.321e+01       6.765e-01           0.098           0.057           0.994       2.654e-01         -0.0319
 166       1.673e+01      -2.321e+01       6.507e-01           0.111           0.063           0.992       2.017e-01          0.0352
 167       1.691e+01      -2.321e+01       6.307e-01           0.120           0.066           0.991       1.261e-01          0.0930
 168       1.699e+01      -2.321e+01       6.176e-01           0.221           0.101           0.970       4.374e-02          0.1555
Strip 7
 169       1.664e+01      -2.219e+01       5.798e-01           0.230           0.053          -0.972       5.527e-02          0.1563
 170       1.655e+01      -2.219e+01       5.646e-01           0.128           0.018          -0.992       1.593e-01          0.0937
 171       1.636e+01      -2.219e+01       5.413e-01           0.120           0.015          -0.993       2.549e-01          0.0377
 172       1.609e+01      -2.219e+01       5.109e-01           0.107           0.011          -0.994       3.353e-01         -0.0274
 173       1.576e+01      -2.219e+01       4.782e-01           0.090           0.005          -0.996       3.960e-01         -0.0843
 174       1.538e+01      -2.220e+01       4.482e-01           0.069          -0.003          -0.998       4.334e-01         -0.1315
 175       1.498e+01      -2.220e+01       4.254e-01           0.045          -0.013          -0.999       4.457e-01         -0.1674
 176       1.458e+01      -2.220e+01       4.128e-01           0.018          -0.025          -1.000       4.325e-01         -0.1926
 177       1.420e+01      -2.220e+01       4.110e-01          -0.010          -0.038          -0.999       3.944e-01         -0.2122
 178       1.387e+01      -2.220e+01       4.192e-01          -0.042          -0.055          -0.998       3.339e-01         -0.2363
 179       1.360e+01      -2.220e+01       4.360e-01          -0.089          -0.081          -0.993       2.545e-01         -0.2835
 180       1.341e+01      -2.220e+01       4.601e-01          -0.185          -0.136          -0.973       1.619e-01         -0.4872
 181       1.332e+01      -2.219e+01       4.952e-01          -0.611          -0.382          -0.694       7.674e-02         -0.1687
 182       1.332e+01      -2.219e+01       5.512e-01          -0.734          -0.428           0.527       1.030e-01          0.6722
 183       1.341e+01      -2.219e+01       6.244e-01          -0.455          -0.255           0.853       1.859e-01          0.0348
 184       1.360e+01      -2.219e+01       6.892e-01          -0.219          -0.116           0.969       2.614e-01         -0.3485
 185       1.387e+01      -2.219e+01       7.274e-01          -0.079          -0.036           0.996       3.346e-01         -0.3564
 186       1.420e+01      -2.219e+01       7.431e-01          -0.020          -0.003           1.000       3.942e-01         -0.2794
 187       1.458e+01      -2.219e+01       7.446e-01           0.011           0.014           1.000       4.321e-01         -0.2272
 188       1.498e+01      -2.219e+01       7.348e-01           0.038           0.028           0.999       4.454e-01         -0.1885
 189       1.538e+01      -2.219e+01       7.148e-01           0.062           0.041           0.997       4.331e-01         -0.1458
 190       1.576e+01      -2.219e+01       6.873e-01           0.084           0.051           0.995       3.958e-01         -0.0943
 191       1.609e+01      -2.219e+01       6.567e-01           0.101           0.058           0.993       3.352e-01         -0.0340
 192       1.636e+01      -2.219e+01       6.280e-01           0.114           0.064           0.991       2.548e-01          0.0335
 193       1.655e+01      -2.219e+01       6.058e-01           0.122           0.067           0.990       1.593e-01          0.0917
 194       1.664e+01      -2.219e+01       5.912e-01           0.224           0.102           0.969       5.528e-02          0.1548
Strip 8
 195       1.624e+01      -2.103e+01       5.485e-01           0.227           0.052          -0.972       6.823e-02          0.1551
 196       1.614e+01      -2.103e+01       5.324e-01           0.126           0.017          -0.992       1.967e-01          0.0931
 197       1.593e+01      -2.103e+01       5.075e-01           0.117           0.014          -0.993       3.148e-01          0.0375
 198       1.564e+01      -2.103e+01       4.753e-01           0.104           0.010          -0.994       4.141e-01         -0.0273
 199       1.528e+01      -2.103e+01       4.406e-01           0.088           0.004          -0.996       4.891e-01         -0.0837
 200       1.487e+01      -2.103e+01       4.091e-01           0.066          -0.004          -0.998       5.354e-01         -0.1301
 201       1.443e+01      -2.103e+01       3.856e-01           0.042          -0.014          -0.999       5.507e-01         -0.1650
 202       1.399e+01      -2.103e+01       3.731e-01           0.015          -0.026          -1.000       5.343e-01         -0.1889
 203       1.358e+01      -2.103e+01       3.723e-01          -0.013          -0.040          -0.999       4.874e-01         -0.2068
 204       1.322e+01      -2.103e+01       3.822e-01          -0.045          -0.056          -0.997       4.126e-01         -0.2284
 205       1.293e+01      -2.103e+01       4.013e-01          -0.092          -0.082          -0.992       3.146e-01         -0.2710
 206       1.273e+01      -2.103e+01       4.281e-01          -0.188          -0.138          -0.972       2.003e-01         -0.4606
 207       1.262e+01      -2.103e+01       4.666e-01          -0.611          -0.382          -0.693       9.502e-02         -0.1315
 208       1.262e+01      -2.103e+01       5.276e-01          -0.734          -0.428           0.527       1.271e-01          0.6637
 209       1.273e+01      -2.103e+01       6.069e-01          -0.453          -0.255           0.854       2.292e-01          0.0160
 210       1.293e+01      -2.102e+01       6.769e-01          -0.216          -0.114           0.970       3.227e-01         -0.3638
 211       1.322e+01      -2.102e+01       7.177e-01          -0.076          -0.034           0.997       4.133e-01         -0.3661
 212       1.358e+01      -2.102e+01       7.338e-01          -0.017          -0.001           1.000       4.870e-01         -0.2858
 213       1.399e+01      -2.102e+01       7.342e-01           0.014           0.016           1.000       5.340e-01         -0.2317
 214       1.443e+01      -2.102e+01       7.224e-01           0.040           0.030           0.999       5.504e-01         -0.1918
 215       1.487e+01      -2.102e+01       6.994e-01           0.065           0.042           0.997       5.353e-01         -0.1484
 216       1.528e+01      -2.102e+01       6.683e-01           0.087           0.052           0.995       4.892e-01         -0.0962
 217       1.564e+01      -2.102e+01       6.339e-01           0.104           0.059           0.993       4.144e-01         -0.0354
 218       1.593e+01      -2.102e+01       6.019e-01           0.117           0.065           0.991       3.150e-01          0.0325
 219       1.614e+01      -2.102e+01       5.771e-01           0.125           0.068           0.990       1.969e-01          0.0910
 220       1.624e+01      -2.102e+01       5.610e-01           0.226           0.103           0.969       6.836e-02          0.1548
Strip 9
 221       1.579e+01      -1.971e+01       5.134e-01           0.225           0.052          -0.973       8.276e-02          0.1543
 222       1.567e+01      -1.971e+01       4.961e-01           0.123           0.016          -0.992       2.386e-01          0.0929
 223       1.545e+01      -1.971e+01       4.696e-01           0.115           0.013          -0.993       3.819e-01          0.0376
 224       1.513e+01      -1.971e+01       4.352e-01           0.102           0.009          -0.995       5.025e-01         -0.0267
 225       1.474e+01      -1.972e+01       3.985e-01           0.085           0.003          -0.996       5.934e-01         -0.0826
 226       1.429e+01      -1.972e+01       3.653e-01           0.064          -0.005          -0.998       6.497e-01         -0.1283
 227       1.381e+01      -1.972e+01       3.409e-01           0.039          -0.016          -0.999       6.683e-01         -0.1623
 228       1.334e+01      -1.972e+01       3.285e-01           0.012          -0.028          -1.000       6.485e-01         -0.1850
 229       1.289e+01      -1.972e+01       3.288e-01          -0.015          -0.041          -0.999       5.916e-01         -0.2013
 230       1.249e+01      -1.972e+01       3.407e-01          -0.047          -0.058          -0.997       5.009e-01         -0.2207
 231       1.218e+01      -1.972e+01       3.623e-01          -0.095          -0.084          -0.992       3.821e-01         -0.2591
 232       1.195e+01      -1.972e+01       3.922e-01          -0.190          -0.139          -0.972       2.433e-01         -0.4358
 233       1.184e+01      -1.972e+01       4.345e-01          -0.612          -0.382          -0.692       1.156e-01         -0.0973
 234       1.184e+01      -1.971e+01       5.010e-01          -0.734          -0.428           0.527       1.540e-01          0.6548
 235       1.195e+01      -1.971e+01       5.874e-01          -0.452          -0.254           0.855       2.777e-01         -0.0022
 236       1.218e+01      -1.971e+01       6.631e-01          -0.214          -0.113           0.970       3.913e-01         -0.3783
 237       1.249e+01      -1.971e+01       7.067e-01          -0.074          -0.033           0.997       5.014e-01         -0.3753
 238       1.289e+01      -1.971e+01       7.233e-01          -0.015           0.000           1.000       5.911e-01         -0.2918
 239       1.334e+01      -1.971e+01       7.226e-01           0.016           0.017           1.000       6.482e-01         -0.2360
 240       1.381e+01      -1.971e+01       7.084e-01           0.043           0.031           0.999       6.682e-01         -0.1949
 241       1.429e+01      -1.971e+01       6.820e-01           0.068           0.043           0.997       6.499e-01         -0.1506
 242       1.474e+01      -1.971e+01       6.469e-01           0.089           0.053           0.995       5.939e-01         -0.0977
 243       1.513e+01      -1.971e+01       6.084e-01           0.106           0.060           0.993       5.031e-01         -0.0366
 244       1.545e+01      -1.971e+01       5.725e-01           0.119           0.066           0.991       3.825e-01          0.0318
 245       1.567e+01      -1.971e+01       5.450e-01           0.128           0.069           0.989       2.391e-01          0.0907
 246       1.579e+01      -1.971e+01       5.270e-01           0.229           0.104           0.968       8.304e-02          0.1550
Strip 10
 247       1.529e+01      -1.827e+01       4.747e-01           0.223           0.051          -0.974       9.882e-02          0.1538
 248       1.516e+01      -1.827e+01       4.561e-01           0.121           0.015          -0.993       2.851e-01          0.0929
 249       1.492e+01      -1.827e+01       4.278e-01           0.112           0.012          -0.994       4.562e-01          0.0380
 250       1.457e+01      -1.827e+01       3.911e-01           0.099           0.008          -0.995       6.003e-01         -0.0260
 251       1.414e+01      -1.827e+01       3.520e-01           0.083           0.002          -0.997       7.090e-01         -0.0814
 252       1.365e+01      -1.827e+01       3.169e-01           0.061          -0.006          -0.998       7.762e-01         -0.1265
 253       1.313e+01      -1.827e+01       2.915e-01           0.037          -0.017          -0.999       7.985e-01         -0.1596
 254       1.261e+01      -1.827e+01       2.793e-01           0.010          -0.029          -1.000       7.750e-01         -0.1813
 255       1.212e+01      -1.827e+01       2.809e-01          -0.018          -0.042          -0.999       7.071e-01         -0.1963
 256       1.169e+01      -1.827e+01       2.949e-01          -0.050          -0.059          -0.997       5.988e-01         -0.2135
 257       1.134e+01      -1.827e+01       3.194e-01          -0.097          -0.085          -0.992       4.568e-01         -0.2482
 258       1.110e+01      -1.827e+01       3.526e-01          -0.193          -0.140          -0.971       2.910e-01         -0.4135
 259       1.097e+01      -1.827e+01       3.992e-01          -0.613          -0.383          -0.692       1.383e-01         -0.0669
 260       1.097e+01      -1.827e+01       4.718e-01          -0.734          -0.428           0.528       1.837e-01          0.6462
 261       1.110e+01      -1.827e+01       5.658e-01          -0.450          -0.253           0.856       3.313e-01         -0.0190
 262       1.134e+01      -1.827e+01       6.479e-01          -0.212          -0.112           0.971       4.672e-01         -0.3916
 263       1.169e+01      -1.827e+01       6.947e-01          -0.071          -0.031           0.997       5.990e-01         -0.3836
 264       1.212e+01      -1.827e+01       7.117e-01          -0.012           0.001           1.000       7.063e-01         -0.2972
 265       1.261e+01      -1.827e+01       7.098e-01           0.019           0.018           1.000       7.746e-01         -0.2398
 266       1.313e+01      -1.827e+01       6.929e-01           0.046           0.032           0.998       7.986e-01         -0.1976
 267       1.365e+01      -1.827e+01       6.629e-01           0.070           0.044           0.997       7.768e-01         -0.1525
 268       1.414e+01      -1.827e+01       6.233e-01           0.092           0.054           0.994       7.100e-01         -0.0991
 269       1.457e+01      -1.827e+01       5.802e-01           0.109           0.061           0.992       6.015e-01         -0.0375
 270       1.492e+01      -1.827e+01       5.402e-01           0.122           0.067           0.990       4.573e-01          0.0312
 271       1.516e+01      -1.827e+01       5.095e-01           0.130           0.070           0.989       2.858e-01          0.0904
 272       1.529e+01      -1.827e+01       4.896e-01           0.231           0.105           0.967       9.931e-02          0.1554
Strip 11
 273       1.475e+01      -1.670e+01       4.327e-01           0.220           0.050          -0.974       1.164e-01          0.1533
 274       1.461e+01      -1.670e+01       4.126e-01           0.118           0.014          -0.993       3.357e-01          0.0930
 275       1.434e+01      -1.670e+01       3.823e-01           0.110           0.012          -0.994       5.373e-01          0.0384
 276       1.396e+01      -1.670e+01       3.431e-01           0.097           0.007          -0.995       7.070e-01         -0.0252
 277       1.349e+01      -1.670e+01       3.015e-01           0.080           0.001          -0.997       8.351e-01         -0.0802
 278       1.296e+01      -1.670e+01       2.644e-01           0.059          -0.007          -0.998       9.143e-01         -0.1248
 279       1.239e+01      -1.670e+01       2.380e-01           0.034          -0.018          -0.999       9.407e-01         -0.1572
 280       1.182e+01      -1.670e+01       2.259e-01           0.008          -0.030          -1.000       9.130e-01         -0.1780
 281       1.129e+01      -1.670e+01       2.288e-01          -0.020          -0.044          -0.999       8.331e-01         -0.1918
 282       1.082e+01      -1.670e+01       2.451e-01          -0.052          -0.060          -0.997       7.056e-01         -0.2073
 283       1.044e+01      -1.670e+01       2.727e-01          -0.099          -0.087          -0.991       5.383e-01         -0.2387
 284       1.017e+01      -1.670e+01       3.096e-01          -0.195          -0.141          -0.971       3.430e-01         -0.3941
 285       1.004e+01      -1.670e+01       3.607e-01          -0.613          -0.383          -0.691       1.633e-01         -0.0409
 286       1.004e+01      -1.670e+01       4.400e-01          -0.734          -0.428           0.528       2.161e-01          0.6383
 287       1.017e+01      -1.670e+01       5.423e-01          -0.449          -0.252           0.857       3.897e-01         -0.0339
 288       1.044e+01      -1.670e+01       6.313e-01          -0.210          -0.110           0.972       5.500e-01         -0.4031
 289       1.082e+01      -1.670e+01       6.816e-01          -0.069          -0.030           0.997       7.056e-01         -0.3908
 290       1.129e+01      -1.670e+01       6.991e-01          -0.010           0.003           1.000       8.321e-01         -0.3019
 291       1.182e+01      -1.670e+01       6.958e-01           0.021           0.019           1.000       9.126e-01         -0.2431
 292       1.239e+01      -1.670e+01       6.762e-01           0.048           0.033           0.998       9.411e-01         -0.2000
 293       1.296e+01      -1.670e+01       6.421e-01           0.072           0.045           0.996       9.155e-01         -0.1542
 294       1.349e+01      -1.670e+01       5.977e-01           0.094           0.055           0.994       8.367e-01         -0.1003
 295       1.396e+01      -1.670e+01       5.496e-01           0.111           0.062           0.992       7.089e-01         -0.0382
 296       1.434e+01      -1.670e+01       5.050e-01           0.124           0.068           0.990       5.390e-01          0.0307
 297       1.461e+01      -1.670e+01       4.709e-01           0.132           0.071           0.989       3.369e-01          0.0903
 298       1.475e+01      -1.670e+01       4.489e-01           0.233           0.105           0.967       1.171e-01          0.1558
Strip 12
 299       1.417e+01      -1.501e+01       3.876e-01           0.219           0.049          -0.975       1.352e-01          0.1529
 300       1.402e+01      -1.501e+01       3.660e-01           0.116           0.014          -0.993       3.902e-01          0.0931
 301       1.373e+01      -1.501e+01       3.336e-01           0.108           0.011          -0.994       6.245e-01          0.0387
 302       1.331e+01      -1.501e+01       2.917e-01           0.095           0.006          -0.995       8.218e-01         -0.0246
 303       1.280e+01      -1.501e+01       2.473e-01           0.078           0.000          -0.997       9.707e-01         -0.0792
 304       1.222e+01      -1.501e+01       2.081e-01           0.057          -0.008          -0.998       1.063e+00         -0.1232
 305       1.160e+01      -1.501e+01       1.805e-01           0.032          -0.019          -0.999       1.094e+00         -0.1551
 306       1.098e+01      -1.501e+01       1.686e-01           0.006          -0.031          -0.999       1.062e+00         -0.1751
 307       1.040e+01      -1.501e+01       1.729e-01          -0.022          -0.045          -0.999       9.687e-01         -0.1879
 308       9.882e+00      -1.501e+01       1.918e-01          -0.054          -0.062          -0.997       8.205e-01         -0.2019
 309       9.469e+00      -1.501e+01       2.227e-01          -0.101          -0.088          -0.991       6.261e-01         -0.2305
 310       9.179e+00      -1.501e+01       2.634e-01          -0.196          -0.142          -0.970       3.991e-01         -0.3777
 311       9.030e+00      -1.501e+01       3.195e-01          -0.614          -0.383          -0.690       1.901e-01         -0.0193
 312       9.030e+00      -1.501e+01       4.059e-01          -0.734          -0.428           0.528       2.509e-01          0.6313
 313       9.179e+00      -1.501e+01       5.171e-01          -0.448          -0.251           0.858       4.525e-01         -0.0464
 314       9.469e+00      -1.501e+01       6.136e-01          -0.208          -0.109           0.972       6.390e-01         -0.4127
 315       9.882e+00      -1.501e+01       6.676e-01          -0.067          -0.029           0.997       8.201e-01         -0.3968
 316       1.040e+01      -1.501e+01       6.856e-01          -0.008           0.004           1.000       9.674e-01         -0.3058
 317       1.098e+01      -1.501e+01       6.809e-01           0.023           0.020           1.000       1.061e+00         -0.2458
 318       1.160e+01      -1.501e+01       6.582e-01           0.050           0.034           0.998       1.094e+00         -0.2019
 319       1.222e+01      -1.501e+01       6.198e-01           0.074           0.046           0.996       1.065e+00         -0.1556
 320       1.280e+01      -1.501e+01       5.702e-01           0.096           0.056           0.994       9.731e-01         -0.1013
 321       1.331e+01      -1.501e+01       5.167e-01           0.113           0.063           0.992       8.244e-01         -0.0389
 322       1.373e+01      -1.501e+01       4.673e-01           0.126           0.068           0.990       6.269e-01          0.0304
 323       1.402e+01      -1.501e+01       4.296e-01           0.134           0.072           0.988       3.919e-01          0.0902
 324       1.417e+01      -1.501e+01       4.053e-01           0.235           0.106           0.966       1.362e-01          0.1560
Strip 13
 325       1.355e+01      -1.322e+01       3.398e-01           0.217           0.049          -0.975       1.551e-01          0.1525
 326       1.339e+01      -1.322e+01       3.166e-01           0.115           0.013          -0.993       4.479e-01          0.0931
 327       1.307e+01      -1.322e+01       2.819e-01           0.106           0.010          -0.994       7.168e-01          0.0390
 328       1.262e+01      -1.322e+01       2.371e-01           0.094           0.006          -0.996       9.433e-01         -0.0241
 329       1.206e+01      -1.323e+01       1.898e-01           0.077          -0.001          -0.997       1.114e+00         -0.0784
 330       1.143e+01      -1.323e+01       1.483e-01           0.055          -0.009          -0.998       1.220e+00         -0.1220
 331       1.076e+01      -1.323e+01       1.195e-01           0.031          -0.020          -0.999       1.255e+00         -0.1534
 332       1.008e+01      -1.323e+01       1.078e-01           0.004          -0.032          -0.999       1.219e+00         -0.1728
 333       9.448e+00      -1.323e+01       1.136e-01          -0.024          -0.046          -0.999       1.112e+00         -0.1847
 334       8.890e+00      -1.323e+01       1.351e-01          -0.056          -0.063          -0.996       9.422e-01         -0.1974
 335       8.440e+00      -1.323e+01       1.696e-01          -0.103          -0.089          -0.991       7.191e-01         -0.2239
 336       8.125e+00      -1.323e+01       2.145e-01          -0.198          -0.143          -0.970       4.585e-01         -0.3644
 337       7.962e+00      -1.323e+01       2.757e-01          -0.614          -0.383          -0.690       2.186e-01         -0.0022
 338       7.962e+00      -1.322e+01       3.698e-01          -0.734          -0.427           0.528       2.877e-01          0.6254
 339       8.125e+00      -1.322e+01       4.904e-01          -0.447          -0.251           0.859       5.189e-01         -0.0566
 340       8.440e+00      -1.322e+01       5.948e-01          -0.206          -0.108           0.972       7.332e-01         -0.4205
 341       8.890e+00      -1.322e+01       6.527e-01          -0.065          -0.028           0.997       9.414e-01         -0.4015
 342       9.448e+00      -1.322e+01       6.713e-01          -0.006           0.005           1.000       1.111e+00         -0.3087
 343       1.008e+01      -1.322e+01       6.650e-01           0.025           0.021           0.999       1.218e+00         -0.2479
 344       1.076e+01      -1.322e+01       6.391e-01           0.052           0.035           0.998       1.257e+00         -0.2034
 345       1.143e+01      -1.322e+01       5.961e-01           0.076           0.047           0.996       1.223e+00         -0.1567
 346       1.206e+01      -1.322e+01       5.411e-01           0.098           0.056           0.994       1.118e+00         -0.1020
 347       1.262e+01      -1.322e+01       4.819e-01           0.115           0.064           0.991       9.468e-01         -0.0394
 348       1.307e+01      -1.322e+01       4.274e-01           0.127           0.069           0.989       7.200e-01          0.0301
 349       1.339e+01      -1.322e+01       3.857e-01           0.136           0.072           0.988       4.500e-01          0.0900
 350       1.355e+01      -1.322e+01       3.590e-01           0.236           0.107           0.966       1.565e-01          0.1563
Strip 14
 351       1.290e+01      -1.135e+01       2.895e-01           0.216           0.048          -0.975       1.759e-01          0.1521
 352       1.272e+01      -1.135e+01       2.647e-01           0.113           0.012          -0.994       5.080e-01          0.0930
 353       1.238e+01      -1.135e+01       2.275e-01           0.105           0.010          -0.994       8.130e-01          0.0391
 354       1.189e+01      -1.135e+01       1.797e-01           0.092           0.005          -0.996       1.070e+00         -0.0237
 355       1.129e+01      -1.135e+01       1.295e-01           0.075          -0.001          -0.997       1.264e+00         -0.0778
 356       1.060e+01      -1.135e+01       8.552e-02           0.054          -0.010          -0.999       1.384e+00         -0.1211
 357       9.871e+00      -1.135e+01       5.548e-02           0.029          -0.020          -0.999       1.424e+00         -0.1520
 358       9.140e+00      -1.135e+01       4.390e-02           0.002          -0.033          -0.999       1.383e+00         -0.1709
 359       8.452e+00      -1.135e+01       5.137e-02          -0.025          -0.047          -0.999       1.262e+00         -0.1822
 360       7.847e+00      -1.135e+01       7.566e-02          -0.057          -0.063          -0.996       1.069e+00         -0.1938
 361       7.359e+00      -1.135e+01       1.138e-01          -0.104          -0.090          -0.990       8.160e-01         -0.2185
 362       7.017e+00      -1.135e+01       1.631e-01          -0.200          -0.144          -0.969       5.204e-01         -0.3540
 363       6.841e+00      -1.135e+01       2.298e-01          -0.614          -0.384          -0.690       2.482e-01          0.0107
 364       6.841e+00      -1.135e+01       3.318e-01          -0.734          -0.427           0.528       3.260e-01          0.6209
 365       7.017e+00      -1.135e+01       4.624e-01          -0.446          -0.250           0.859       5.880e-01         -0.0642
 366       7.359e+00      -1.135e+01       5.750e-01          -0.205          -0.108           0.973       8.312e-01         -0.4260
 367       7.847e+00      -1.135e+01       6.371e-01          -0.064          -0.027           0.998       1.068e+00         -0.4048
 368       8.452e+00      -1.135e+01       6.563e-01          -0.005           0.006           1.000       1.260e+00         -0.3109
 369       9.140e+00      -1.135e+01       6.483e-01           0.026           0.022           0.999       1.382e+00         -0.2494
 370       9.871e+00      -1.135e+01       6.191e-01           0.053           0.036           0.998       1.426e+00         -0.2046
 371       1.060e+01      -1.135e+01       5.713e-01           0.078           0.047           0.996       1.387e+00         -0.1575
 372       1.129e+01      -1.135e+01       5.105e-01           0.099           0.057           0.993       1.268e+00         -0.1026
 373       1.189e+01      -1.135e+01       4.453e-01           0.116           0.064           0.991       1.074e+00         -0.0399
 374       1.238e+01      -1.135e+01       3.854e-01           0.129           0.069           0.989       8.169e-01          0.0298
 375       1.272e+01      -1.135e+01       3.396e-01           0.137           0.073           0.988       5.107e-01          0.0899
 376       1.290e+01      -1.135e+01       3.104e-01           0.238           0.107           0.965       1.776e-01          0.1564
Strip 15
 377       1.223e+01      -9.391e+00       2.372e-01           0.214           0.048          -0.976       1.972e-01          0.1516
 378       1.204e+01      -9.391e+00       2.106e-01           0.112           0.012          -0.994       5.694e-01          0.0928
 379       1.167e+01      -9.391e+00       1.710e-01           0.103           0.009          -0.995       9.114e-01          0.0390
 380       1.114e+01      -9.391e+00       1.200e-01           0.091           0.005          -0.996       1.199e+00         -0.0237
 381       1.048e+01      -9.392e+00       6.662e-02           0.074          -0.002          -0.997       1.417e+00         -0.0775
 382       9.739e+00      -9.392e+00       2.015e-02           0.052          -0.010          -0.999       1.552e+00         -0.1205
 383       8.949e+00      -9.392e+00      -1.121e-02           0.028          -0.021          -0.999       1.597e+00         -0.1511
 384       8.160e+00      -9.392e+00      -2.261e-02           0.001          -0.034          -0.999       1.550e+00         -0.1696
 385       7.416e+00      -9.392e+00      -1.347e-02          -0.027          -0.047          -0.999       1.415e+00         -0.1802
 386       6.761e+00      -9.392e+00       1.373e-02          -0.059          -0.064          -0.996       1.199e+00         -0.1910
 387       6.234e+00      -9.392e+00       5.575e-02          -0.106          -0.090          -0.990       9.152e-01         -0.2144
 388       5.864e+00      -9.392e+00       1.095e-01          -0.201          -0.145          -0.969       5.838e-01         -0.3464
 389       5.674e+00      -9.392e+00       1.820e-01          -0.615          -0.384          -0.689       2.786e-01          0.0195
 390       5.674e+00      -9.391e+00       2.922e-01          -0.734          -0.427           0.528       3.651e-01          0.6177
 391       5.864e+00      -9.391e+00       4.332e-01          -0.445          -0.250           0.860       6.587e-01         -0.0691
 392       6.234e+00      -9.390e+00       5.545e-01          -0.204          -0.107           0.973       9.316e-01         -0.4293
 393       6.761e+00      -9.390e+00       6.208e-01          -0.062          -0.026           0.998       1.197e+00         -0.4066
 394       7.416e+00      -9.390e+00       6.407e-01          -0.003           0.006           1.000       1.413e+00         -0.3120
 395       8.160e+00      -9.390e+00       6.310e-01           0.028           0.023           0.999       1.550e+00         -0.2503
 396       8.949e+00      -9.390e+00       5.982e-01           0.055           0.036           0.998       1.599e+00         -0.2053
 397       9.739e+00      -9.390e+00       5.454e-01           0.079           0.048           0.996       1.555e+00         -0.1582
 398       1.048e+01      -9.390e+00       4.786e-01           0.101           0.058           0.993       1.422e+00         -0.1032
 399       1.114e+01      -9.390e+00       4.072e-01           0.117           0.065           0.991       1.205e+00         -0.0403
 400       1.167e+01      -9.391e+00       3.416e-01           0.130           0.070           0.989       9.162e-01          0.0294
 401       1.204e+01      -9.391e+00       2.917e-01           0.139           0.073           0.988       5.728e-01          0.0896
 402       1.223e+01      -9.391e+00       2.597e-01           0.239           0.107           0.965       1.992e-01          0.1564
Strip 16
 403       1.153e+01      -7.371e+00       1.831e-01           0.213           0.047          -0.976       2.185e-01          0.1508
 404       1.132e+01      -7.371e+00       1.548e-01           0.110           0.011          -0.994       6.312e-01          0.0923
 405       1.092e+01      -7.372e+00       1.125e-01           0.102           0.009          -0.995       1.010e+00          0.0386
 406       1.036e+01      -7.372e+00       5.837e-02           0.089           0.004          -0.996       1.330e+00         -0.0240
 407       9.651e+00      -7.372e+00       1.699e-03           0.072          -0.002          -0.997       1.571e+00         -0.0777
 408       8.849e+00      -7.372e+00      -4.737e-02           0.051          -0.011          -0.999       1.720e+00         -0.1204
 409       7.998e+00      -7.372e+00      -8.009e-02           0.026          -0.022          -0.999       1.770e+00         -0.1507
 410       7.147e+00      -7.372e+00      -9.130e-02          -0.000          -0.034          -0.999       1.719e+00         -0.1687
 411       6.345e+00      -7.372e+00      -8.044e-02          -0.028          -0.048          -0.998       1.569e+00         -0.1787
 412       5.640e+00      -7.372e+00      -5.023e-02          -0.060          -0.065          -0.996       1.329e+00         -0.1887
 413       5.071e+00      -7.372e+00      -4.228e-03          -0.107          -0.091          -0.990       1.015e+00         -0.2112
 414       4.673e+00      -7.372e+00       5.421e-02          -0.202          -0.146          -0.969       6.475e-01         -0.3409
 415       4.468e+00      -7.372e+00       1.325e-01          -0.615          -0.384          -0.689       3.092e-01          0.0244
 416       4.468e+00      -7.372e+00       2.514e-01          -0.734          -0.427           0.528       4.045e-01          0.6160
 417       4.673e+00      -7.371e+00       4.030e-01          -0.445          -0.249           0.860       7.297e-01         -0.0708
 418       5.071e+00      -7.371e+00       5.332e-01          -0.202          -0.106           0.974       1.032e+00         -0.4298
 419       5.640e+00      -7.371e+00       6.040e-01          -0.061          -0.026           0.998       1.327e+00         -0.4064
 420       6.345e+00      -7.371e+00       6.245e-01          -0.002           0.007           1.000       1.566e+00         -0.3122
 421       7.147e+00      -7.371e+00       6.130e-01           0.029           0.023           0.999       1.718e+00         -0.2507
 422       7.998e+00      -7.371e+00       5.767e-01           0.056           0.037           0.998       1.773e+00         -0.2059
 423       8.849e+00      -7.371e+00       5.187e-01           0.080           0.049           0.996       1.725e+00         -0.1589
 424       9.651e+00      -7.371e+00       4.457e-01           0.102           0.058           0.993       1.577e+00         -0.1039
 425       1.036e+01      -7.371e+00       3.678e-01           0.119           0.065           0.991       1.336e+00         -0.0410
 426       1.092e+01      -7.371e+00       2.965e-01           0.132           0.070           0.989       1.016e+00          0.0288
 427       1.132e+01      -7.371e+00       2.421e-01           0.140           0.074           0.987       6.352e-01          0.0891
 428       1.153e+01      -7.371e+00       2.074e-01           0.240           0.108           0.965       2.210e-01          0.1561
Strip 17
 429       1.081e+01      -5.302e+00       1.277e-01           0.212           0.047          -0.976       2.396e-01          0.1496
 430       1.059e+01      -5.302e+00       9.751e-02           0.109           0.011          -0.994       6.921e-01          0.0912
 431       1.017e+01      -5.302e+00       5.265e-02           0.101           0.008          -0.995       1.108e+00          0.0374
 432       9.555e+00      -5.302e+00      -4.835e-03           0.088           0.004          -0.996       1.458e+00         -0.0252
 433       8.798e+00      -5.302e+00      -6.484e-02           0.071          -0.003          -0.997       1.722e+00         -0.0788
 434       7.937e+00      -5.302e+00      -1.166e-01           0.050          -0.011          -0.999       1.886e+00         -0.1212
 435       7.023e+00      -5.302e+00      -1.507e-01           0.025          -0.022          -0.999       1.941e+00         -0.1509
 436       6.109e+00      -5.302e+00      -1.617e-01          -0.001          -0.035          -0.999       1.885e+00         -0.1680
 437       5.248e+00      -5.302e+00      -1.491e-01          -0.029          -0.049          -0.998       1.721e+00         -0.1771
 438       4.490e+00      -5.302e+00      -1.158e-01          -0.061          -0.066          -0.996       1.458e+00         -0.1862
 439       3.880e+00      -5.302e+00      -6.570e-02          -0.108          -0.092          -0.990       1.113e+00         -0.2077
 440       3.452e+00      -5.302e+00      -2.474e-03          -0.203          -0.146          -0.968       7.104e-01         -0.3364
 441       3.232e+00      -5.302e+00       8.189e-02          -0.615          -0.384          -0.688       3.394e-01          0.0257
 442       3.232e+00      -5.302e+00       2.095e-01          -0.734          -0.427           0.528       4.432e-01          0.6165
 443       3.452e+00      -5.302e+00       3.721e-01          -0.444          -0.249           0.861       7.995e-01         -0.0674
 444       3.880e+00      -5.301e+00       5.114e-01          -0.201          -0.106           0.974       1.132e+00         -0.4256
 445       4.490e+00      -5.301e+00       5.868e-01          -0.060          -0.025           0.998       1.455e+00         -0.4032
 446       5.248e+00      -5.301e+00       6.079e-01          -0.001           0.008           1.000       1.717e+00         -0.3105
 447       6.109e+00      -5.301e+00       5.947e-01           0.030           0.024           0.999       1.885e+00         -0.2504
 448       7.023e+00      -5.301e+00       5.546e-01           0.057           0.037           0.998       1.944e+00         -0.2066
 449       7.937e+00      -5.301e+00       4.913e-01           0.081           0.049           0.995       1.892e+00         -0.1602
 450       8.798e+00      -5.301e+00       4.119e-01           0.103           0.059           0.993       1.729e+00         -0.1055
 451       9.555e+00      -5.301e+00       3.275e-01           0.120           0.066           0.991       1.465e+00         -0.0426
 452       1.017e+01      -5.301e+00       2.502e-01           0.133           0.071           0.989       1.114e+00          0.0273
 453       1.059e+01      -5.301e+00       1.913e-01           0.141           0.074           0.987       6.967e-01          0.0878
 454       1.081e+01      -5.302e+00       1.538e-01           0.241           0.108           0.964       2.424e-01          0.1552
Strip 18
 455       1.009e+01      -3.195e+00       7.139e-02           0.211           0.047          -0.976       2.598e-01          0.1469
 456       9.851e+00      -3.196e+00       3.927e-02           0.108           0.011          -0.994       7.507e-01          0.0884
 457       9.394e+00      -3.196e+00      -8.281e-03           0.100           0.008          -0.995       1.202e+00          0.0342
 458       8.740e+00      -3.196e+00      -6.914e-02           0.087           0.003          -0.996       1.581e+00         -0.0289
 459       7.930e+00      -3.196e+00      -1.325e-01           0.070          -0.003          -0.998       1.868e+00         -0.0825
 460       7.009e+00      -3.196e+00      -1.870e-01           0.049          -0.012          -0.999       2.046e+00         -0.1241
 461       6.031e+00      -3.196e+00      -2.225e-01           0.024          -0.023          -0.999       2.106e+00         -0.1520
 462       5.053e+00      -3.196e+00      -2.333e-01          -0.002          -0.035          -0.999       2.045e+00         -0.1667
 463       4.132e+00      -3.196e+00      -2.189e-01          -0.030          -0.049          -0.998       1.867e+00         -0.1733
 464       3.321e+00      -3.196e+00      -1.825e-01          -0.062          -0.066          -0.996       1.582e+00         -0.1801
 465       2.668e+00      -3.196e+00      -1.283e-01          -0.109          -0.092          -0.990       1.208e+00         -0.2000
 466       2.210e+00      -3.196e+00      -6.015e-02          -0.204          -0.147          -0.968       7.709e-01         -0.3283
 467       1.974e+00      -3.196e+00       3.035e-02          -0.615          -0.384          -0.688       3.684e-01          0.0251
 468       1.974e+00      -3.196e+00       1.669e-01          -0.734          -0.427           0.528       4.805e-01          0.6224
 469       2.210e+00      -3.195e+00       3.406e-01          -0.443          -0.249           0.861       8.668e-01         -0.0534
 470       2.668e+00      -3.195e+00       4.893e-01          -0.200          -0.105           0.974       1.227e+00         -0.4104
 471       3.321e+00      -3.195e+00       5.692e-01          -0.059          -0.024           0.998       1.578e+00         -0.3923
 472       4.132e+00      -3.195e+00       5.911e-01           0.000           0.008           1.000       1.863e+00         -0.3047
 473       5.053e+00      -3.195e+00       5.760e-01           0.031           0.024           0.999       2.045e+00         -0.2489
 474       6.031e+00      -3.195e+00       5.322e-01           0.058           0.038           0.998       2.109e+00         -0.2084
 475       7.009e+00      -3.195e+00       4.635e-01           0.082           0.050           0.995       2.052e+00         -0.1640
 476       7.930e+00      -3.195e+00       3.776e-01           0.104           0.059           0.993       1.877e+00         -0.1100
 477       8.740e+00      -3.195e+00       2.864e-01           0.121           0.066           0.990       1.590e+00         -0.0469
 478       9.394e+00      -3.195e+00       2.030e-01           0.134           0.071           0.988       1.209e+00          0.0237
 479       9.851e+00      -3.195e+00       1.396e-01           0.142           0.074           0.987       7.559e-01          0.0849
 480       1.009e+01      -3.195e+00       9.931e-02           0.242           0.108           0.964       2.630e-01          0.1528
Strip 19
 481       9.353e+00      -1.068e+00       1.444e-02           0.210           0.046          -0.977       2.788e-01          0.1405
 482       9.101e+00      -1.068e+00      -1.958e-02           0.108           0.010          -0.994       8.057e-01          0.0797
 483       8.613e+00      -1.068e+00      -6.984e-02           0.099           0.008          -0.995       1.290e+00          0.0217
 484       7.917e+00      -1.068e+00      -1.341e-01           0.086           0.003          -0.996       1.697e+00         -0.0441
 485       7.053e+00      -1.068e+00      -2.009e-01           0.069          -0.004          -0.998       2.005e+00         -0.0966
 486       6.071e+00      -1.068e+00      -2.581e-01           0.048          -0.012          -0.999       2.196e+00         -0.1336
 487       5.028e+00      -1.068e+00      -2.951e-01           0.023          -0.023          -0.999       2.260e+00         -0.1545
 488       3.986e+00      -1.068e+00      -3.057e-01          -0.003          -0.036          -0.999       2.195e+00         -0.1611
 489       3.004e+00      -1.068e+00      -2.895e-01          -0.031          -0.050          -0.998       2.004e+00         -0.1587
 490       2.139e+00      -1.068e+00      -2.499e-01          -0.063          -0.067          -0.996       1.698e+00         -0.1551
 491       1.443e+00      -1.068e+00      -1.915e-01          -0.110          -0.093          -0.990       1.297e+00         -0.1644
 492       9.550e-01      -1.068e+00      -1.184e-01          -0.205          -0.147          -0.968       8.278e-01         -0.2828
 493       7.036e-01      -1.068e+00      -2.171e-02          -0.616          -0.384          -0.688       3.957e-01          0.0358
 494       7.036e-01      -1.068e+00       1.239e-01          -0.734          -0.427           0.528       5.154e-01          0.6375
 495       9.550e-01      -1.068e+00       3.089e-01          -0.443          -0.248           0.861       9.299e-01          0.0009
 496       1.443e+00      -1.068e+00       4.669e-01          -0.200          -0.105           0.974       1.317e+00         -0.3500
 497       2.139e+00      -1.068e+00       5.515e-01          -0.058          -0.024           0.998       1.694e+00         -0.3507
 498       3.004e+00      -1.068e+00       5.741e-01           0.001           0.009           1.000       2.000e+00         -0.2858
 499       3.986e+00      -1.067e+00       5.571e-01           0.032           0.025           0.999       2.195e+00         -0.2444
 500       5.028e+00      -1.067e+00       5.095e-01           0.059           0.038           0.998       2.264e+00         -0.2140
 501       6.071e+00      -1.068e+00       4.353e-01           0.083           0.050           0.995       2.203e+00         -0.1769
 502       7.053e+00      -1.068e+00       3.429e-01           0.105           0.059           0.993       2.015e+00         -0.1270
 503       7.917e+00      -1.068e+00       2.449e-01           0.122           0.066           0.990       1.707e+00         -0.0638
 504       8.613e+00      -1.068e+00       1.555e-01           0.134           0.071           0.988       1.298e+00          0.0104
 505       9.101e+00      -1.068e+00       8.742e-02           0.143           0.075           0.987       8.116e-01          0.0759
 506       9.353e+00      -1.068e+00       4.421e-02           0.243           0.109           0.964       2.824e-01          0.1464
Strip 20
 507       9.353e+00       1.068e+00       1.444e-02           0.210          -0.046          -0.977       2.788e-01          0.1405
 508       9.101e+00       1.068e+00      -1.958e-02           0.108          -0.010          -0.994       8.057e-01          0.0797
 509       8.613e+00       1.068e+00      -6.984e-02           0.099          -0.008          -0.995       1.290e+00          0.0217
 510       7.917e+00       1.068e+00      -1.341e-01           0.086          -0.003          -0.996       1.697e+00         -0.0441
 511       7.053e+00       1.068e+00      -2.009e-01           0.069           0.004          -0.998       2.005e+00         -0.0966
 512       6.071e+00       1.068e+00      -2.581e-01           0.048           0.012          -0.999       2.196e+00         -0.1336
 513       5.028e+00       1.068e+00      -2.951e-01           0.023           0.023          -0.999       2.260e+00         -0.1545
 514       3.986e+00       1.068e+00      -3.057e-01          -0.003           0.036          -0.999       2.195e+00         -0.1611
 515       3.004e+00       1.068e+00      -2.895e-01          -0.031           0.050          -0.998       2.004e+00         -0.1587
 516       2.139e+00       1.068e+00      -2.499e-01          -0.063           0.067          -0.996       1.698e+00         -0.1551
 517       1.443e+00       1.068e+00      -1.915e-01          -0.110           0.093          -0.990       1.297e+00         -0.1644
 518       9.550e-01       1.068e+00      -1.184e-01          -0.205           0.147          -0.968       8.278e-01         -0.2828
 519       7.036e-01       1.068e+00      -2.171e-02          -0.616           0.384          -0.688       3.957e-01          0.0358
 520       7.036e-01       1.068e+00       1.239e-01          -0.734           0.427           0.528       5.154e-01          0.6375
 521       9.550e-01       1.068e+00       3.089e-01          -0.443           0.248           0.861       9.299e-01          0.0009
 522       1.443e+00       1.068e+00       4.669e-01          -0.200           0.105           0.974       1.317e+00         -0.3500
 523       2.139e+00       1.068e+00       5.515e-01          -0.058           0.024           0.998       1.694e+00         -0.3507
 524       3.004e+00       1.068e+00       5.741e-01           0.001          -0.009           1.000       2.000e+00         -0.2858
 525       3.986e+00       1.067e+00       5.571e-01           0.032          -0.025           0.999       2.195e+00         -0.2444
 526       5.028e+00       1.067e+00       5.095e-01           0.059          -0.038           0.998       2.264e+00         -0.2140
 527       6.071e+00       1.068e+00       4.353e-01           0.083          -0.050           0.995       2.203e+00         -0.1769
 528       7.053e+00       1.068e+00       3.429e-01           0.105          -0.059           0.993       2.015e+00         -0.1270
 529       7.917e+00       1.068e+00       2.449e-01           0.122          -0.066           0.990       1.707e+00         -0.0638
 530       8.613e+00       1.068e+00       1.555e-01           0.134          -0.071           0.988       1.298e+00          0.0104
 531       9.101e+00       1.068e+00       8.742e-02           0.143          -0.075           0.987       8.116e-01          0.0759
 532       9.353e+00       1.068e+00       4.421e-02           0.243          -0.109           0.964       2.824e-01          0.1464
Strip 21
 533       1.009e+01       3.195e+00       7.139e-02           0.211          -0.047          -0.976       2.598e-01          0.1469
 534       9.851e+00       3.196e+00       3.927e-02           0.108          -0.011          -0.994       7.507e-01          0.0884
 535       9.394e+00       3.196e+00      -8.281e-03           0.100          -0.008          -0.995       1.202e+00          0.0342
 536       8.740e+00       3.196e+00      -6.914e-02           0.087          -0.003          -0.996       1.581e+00         -0.0289
 537       7.930e+00       3.196e+00      -1.325e-01           0.070           0.003          -0.998       1.868e+00         -0.0825
 538       7.009e+00       3.196e+00      -1.870e-01           0.049           0.012          -0.999       2.046e+00         -0.1241
 539       6.031e+00       3.196e+00      -2.225e-01           0.024           0.023          -0.999       2.106e+00         -0.1520
 540       5.053e+00       3.196e+00      -2.333e-01          -0.002           0.035          -0.999       2.045e+00         -0.1667
 541       4.132e+00       3.196e+00      -2.189e-01          -0.030           0.049          -0.998       1.867e+00         -0.1733
 542       3.321e+00       3.196e+00      -1.825e-01          -0.062           0.066          -0.996       1.582e+00         -0.1801
 543       2.668e+00       3.196e+00      -1.283e-01          -0.109           0.092          -0.990       1.208e+00         -0.2000
 544       2.210e+00       3.196e+00      -6.015e-02          -0.204           0.147          -0.968       7.709e-01         -0.3283
 545       1.974e+00       3.196e+00       3.035e-02          -0.615           0.384          -0.688       3.684e-01          0.0251
 546       1.974e+00       3.196e+00       1.669e-01          -0.734           0.427           0.528       4.805e-01          0.6224
 547       2.210e+00       3.195e+00       3.406e-01          -0.443           0.249           0.861       8.668e-01         -0.0534
 548       2.668e+00       3.195e+00       4.893e-01          -0.200           0.105           0.974       1.227e+00         -0.4104
 549       3.321e+00       3.195e+00       5.692e-01          -0.059           0.024           0.998       1.578e+00         -0.3923
 550       4.132e+00       3.195e+00       5.911e-01           0.000          -0.008           1.000       1.863e+00         -0.3047
 551       5.053e+00       3.195e+00       5.760e-01           0.031          -0.024           0.999       2.045e+00         -0.2489
 552       6.031e+00       3.195e+00       5.322e-01           0.058          -0.038           0.998       2.109e+00         -0.2084
 553       7.009e+00       3.195e+00       4.635e-01           0.082          -0.050           0.995       2.052e+00         -0.1640
 554       7.930e+00       3.195e+00       3.776e-01           0.104          -0.059           0.993       1.877e+00         -0.1100
 555       8.740e+00       3.195e+00       2.864e-01           0.121          -0.066           0.990       1.590e+00         -0.0469
 556       9.394e+00       3.195e+00       2.030e-01           0.134          -0.071           0.988       1.209e+00          0.0237
 557       9.851e+00       3.195e+00       1.396e-01           0.142          -0.074           0.987       7.559e-01          0.0849
 558       1.009e+01       3.195e+00       9.931e-02           0.242          -0.108           0.964       2.630e-01          0.1528
Strip 22
 559       1.081e+01       5.302e+00       1.277e-01           0.212          -0.047          -0.976       2.396e-01          0.1496
 560       1.059e+01       5.302e+00       9.751e-02           0.109          -0.011          -0.994       6.921e-01          0.0912
 561       1.017e+01       5.302e+00       5.265e-02           0.101          -0.008          -0.995       1.108e+00          0.0374
 562       9.555e+00       5.302e+00      -4.835e-03           0.088          -0.004          -0.996       1.458e+00         -0.0252
 563       8.798e+00       5.302e+00      -6.484e-02           0.071           0.003          -0.997       1.722e+00         -0.0788
[...]
 853       1.474e+01       2.321e+01       4.447e-01          -0.007           0.037          -0.999       3.123e-01         -0.2170
 854       1.443e+01       2.321e+01       4.514e-01          -0.039           0.053          -0.998       2.643e-01         -0.2438
 855       1.419e+01       2.321e+01       4.662e-01          -0.086           0.079          -0.993       2.015e-01         -0.2956
 856       1.401e+01       2.321e+01       4.879e-01          -0.183           0.134          -0.974       1.281e-01         -0.5137
 857       1.392e+01       2.321e+01       5.201e-01          -0.610           0.381          -0.695       6.064e-02         -0.2064
 858       1.392e+01       2.321e+01       5.718e-01          -0.734           0.428           0.527       8.177e-02          0.6796
 859       1.401e+01       2.321e+01       6.396e-01          -0.456           0.256           0.852       1.475e-01          0.0530
 860       1.419e+01       2.321e+01       6.998e-01          -0.221           0.117           0.968       2.073e-01         -0.3335
 861       1.443e+01       2.321e+01       7.358e-01          -0.082           0.037           0.996       2.651e-01         -0.3467
 862       1.474e+01       2.321e+01       7.512e-01          -0.023           0.004           1.000       3.122e-01         -0.2731
 863       1.509e+01       2.321e+01       7.536e-01           0.008          -0.013           1.000       3.422e-01         -0.2226
 864       1.546e+01       2.321e+01       7.457e-01           0.035          -0.027           0.999       3.527e-01         -0.1847
 865       1.583e+01       2.321e+01       7.283e-01           0.059          -0.039           0.997       3.429e-01         -0.1428
 866       1.618e+01       2.321e+01       7.039e-01           0.081          -0.050           0.995       3.133e-01         -0.0917
 867       1.648e+01       2.321e+01       6.765e-01           0.098          -0.057           0.994       2.654e-01         -0.0319
 868       1.673e+01       2.321e+01       6.507e-01           0.111          -0.063           0.992       2.017e-01          0.0352
 869       1.691e+01       2.321e+01       6.307e-01           0.120          -0.066           0.991       1.261e-01          0.0930
 870       1.699e+01       2.321e+01       6.176e-01           0.221          -0.101           0.970       4.374e-02          0.1555
Strip 34
 871       1.729e+01       2.407e+01       6.299e-01           0.235          -0.055          -0.970       3.373e-02          0.1614
 872       1.721e+01       2.407e+01       6.165e-01           0.134          -0.020          -0.991       9.714e-02          0.0978
 873       1.705e+01       2.407e+01       5.955e-01           0.126          -0.017          -0.992       1.554e-01          0.0419
 874       1.682e+01       2.407e+01       5.681e-01           0.113          -0.013          -0.994       2.045e-01         -0.0232
 875       1.653e+01       2.407e+01       5.384e-01           0.096          -0.008          -0.995       2.414e-01         -0.0805
 876       1.621e+01       2.407e+01       5.108e-01           0.075           0.000          -0.997       2.642e-01         -0.1290
 877       1.586e+01       2.407e+01       4.893e-01           0.050           0.010          -0.999       2.717e-01         -0.1673
 878       1.552e+01       2.407e+01       4.766e-01           0.024           0.022          -0.999       2.635e-01         -0.1960
 879       1.520e+01       2.407e+01       4.732e-01          -0.004           0.035          -0.999       2.403e-01         -0.2200
 880       1.491e+01       2.407e+01       4.785e-01          -0.036           0.052          -0.998       2.033e-01         -0.2497
 881       1.468e+01       2.407e+01       4.916e-01          -0.084           0.078          -0.993       1.549e-01         -0.3063
 882       1.452e+01       2.407e+01       5.114e-01          -0.180           0.133          -0.975       9.848e-02         -0.5383
 883       1.444e+01       2.407e+01       5.411e-01          -0.609           0.381          -0.695       4.656e-02         -0.2416
 884       1.444e+01       2.407e+01       5.891e-01          -0.734           0.428           0.527       6.303e-02          0.6848
 885       1.452e+01       2.407e+01       6.524e-01          -0.458           0.257           0.851       1.137e-01          0.0685
 886       1.468e+01       2.407e+01       7.089e-01          -0.224           0.119           0.967       1.596e-01         -0.3204
 887       1.491e+01       2.407e+01       7.430e-01          -0.085           0.039           0.996       2.040e-01         -0.3381
 888       1.520e+01       2.406e+01       7.581e-01          -0.026           0.006           1.000       2.402e-01         -0.2670
 889       1.552e+01       2.406e+01       7.612e-01           0.005          -0.011           1.000       2.633e-01         -0.2175
 890       1.586e+01       2.406e+01       7.548e-01           0.032          -0.026           0.999       2.713e-01         -0.1799
 891       1.621e+01       2.406e+01       7.396e-01           0.057          -0.038           0.998       2.638e-01         -0.1381
 892       1.653e+01       2.407e+01       7.179e-01           0.078          -0.048           0.996       2.410e-01         -0.0875
 893       1.682e+01       2.407e+01       6.932e-01           0.095          -0.056           0.994       2.041e-01         -0.0283
 894       1.705e+01       2.407e+01       6.699e-01           0.108          -0.062           0.992       1.551e-01          0.0382
 895       1.721e+01       2.407e+01       6.518e-01           0.117          -0.066           0.991       9.696e-02          0.0954
 896       1.729e+01       2.407e+01       6.398e-01           0.218          -0.101           0.971       3.363e-02          0.1570
Strip 35
 897       1.753e+01       2.476e+01       6.485e-01           0.237          -0.056          -0.970       2.488e-02          0.1651
 898       1.745e+01       2.476e+01       6.356e-01           0.136          -0.021          -0.990       7.162e-02          0.1014
 899       1.730e+01       2.476e+01       6.156e-01           0.128          -0.018          -0.992       1.146e-01          0.0465
 900       1.709e+01       2.476e+01       5.893e-01           0.115          -0.014          -0.993       1.507e-01         -0.0170
 901       1.682e+01       2.476e+01       5.607e-01           0.099          -0.009          -0.995       1.780e-01         -0.0728
 902       1.651e+01       2.476e+01       5.340e-01           0.077          -0.001          -0.997       1.948e-01         -0.1205
 903       1.619e+01       2.476e+01       5.130e-01           0.053           0.009          -0.999       2.002e-01         -0.1596
 904       1.587e+01       2.476e+01       5.001e-01           0.026           0.021          -0.999       1.942e-01         -0.1909
 905       1.556e+01       2.476e+01       4.962e-01          -0.001           0.034          -0.999       1.771e-01         -0.2185
 906       1.530e+01       2.476e+01       5.005e-01          -0.034           0.050          -0.998       1.498e-01         -0.2521
 907       1.508e+01       2.476e+01       5.122e-01          -0.081           0.076          -0.994       1.141e-01         -0.3138
 908       1.493e+01       2.476e+01       5.304e-01          -0.178           0.132          -0.975       7.251e-02         -0.5580
 909       1.485e+01       2.476e+01       5.580e-01          -0.609           0.381          -0.696       3.424e-02         -0.2701
 910       1.485e+01       2.476e+01       6.031e-01          -0.735           0.428           0.527       4.653e-02          0.6853
 911       1.493e+01       2.476e+01       6.627e-01          -0.459           0.258           0.850       8.392e-02          0.0777
 912       1.508e+01       2.476e+01       7.162e-01          -0.226           0.120           0.967       1.178e-01         -0.3113
 913       1.530e+01       2.476e+01       7.488e-01          -0.087           0.040           0.995       1.504e-01         -0.3313
 914       1.556e+01       2.476e+01       7.637e-01          -0.028           0.007           1.000       1.771e-01         -0.2606
 915       1.587e+01       2.476e+01       7.674e-01           0.002          -0.010           1.000       1.940e-01         -0.2096
 916       1.619e+01       2.476e+01       7.622e-01           0.029          -0.024           0.999       1.999e-01         -0.1707
 917       1.651e+01       2.476e+01       7.488e-01           0.054          -0.037           0.998       1.943e-01         -0.1288
 918       1.682e+01       2.476e+01       7.292e-01           0.076          -0.047           0.996       1.775e-01         -0.0795
 919       1.709e+01       2.476e+01       7.067e-01           0.093          -0.055           0.994       1.503e-01         -0.0222
 920       1.730e+01       2.476e+01       6.854e-01           0.106          -0.061           0.993       1.143e-01          0.0425
 921       1.745e+01       2.476e+01       6.688e-01           0.114          -0.065           0.991       7.142e-02          0.0985
 922       1.753e+01       2.476e+01       6.577e-01           0.216          -0.100           0.971       2.476e-02          0.1591
Strip 36
 923       1.771e+01       2.528e+01       6.625e-01           0.239          -0.057          -0.969       1.702e-02          0.1655
 924       1.764e+01       2.528e+01       6.501e-01           0.139          -0.021          -0.990       4.899e-02          0.1023
 925       1.749e+01       2.528e+01       6.308e-01           0.130          -0.019          -0.991       7.838e-02          0.0498
 926       1.729e+01       2.529e+01       6.053e-01           0.118          -0.015          -0.993       1.031e-01         -0.0096
 927       1.703e+01       2.529e+01       5.775e-01           0.101          -0.010          -0.995       1.217e-01         -0.0608
 928       1.674e+01       2.529e+01       5.515e-01           0.080          -0.002          -0.997       1.332e-01         -0.1044
 929       1.644e+01       2.529e+01       5.309e-01           0.055           0.008          -0.998       1.369e-01         -0.1411
 930       1.613e+01       2.529e+01       5.180e-01           0.028           0.020          -0.999       1.328e-01         -0.1730
 931       1.584e+01       2.529e+01       5.135e-01           0.001           0.033          -0.999       1.211e-01         -0.2056
 932       1.559e+01       2.529e+01       5.171e-01          -0.031           0.049          -0.998       1.024e-01         -0.2467
 933       1.538e+01       2.529e+01       5.278e-01          -0.079           0.075          -0.994       7.801e-02         -0.3156
 934       1.524e+01       2.529e+01       5.447e-01          -0.176           0.130          -0.976       4.954e-02         -0.5705
 935       1.516e+01       2.529e+01       5.709e-01          -0.608           0.380          -0.697       2.337e-02         -0.2869
 936       1.516e+01       2.529e+01       6.137e-01          -0.735           0.428           0.527       3.186e-02          0.6740
 937       1.524e+01       2.528e+01       6.706e-01          -0.460           0.259           0.849       5.747e-02          0.0718
 938       1.538e+01       2.528e+01       7.217e-01          -0.228           0.121           0.966       8.058e-02         -0.3108
 939       1.559e+01       2.528e+01       7.531e-01          -0.089           0.041           0.995       1.029e-01         -0.3252
 940       1.584e+01       2.528e+01       7.679e-01          -0.031           0.008           0.999       1.211e-01         -0.2472
 941       1.613e+01       2.528e+01       7.721e-01           0.000          -0.009           1.000       1.327e-01         -0.1905
 942       1.644e+01       2.528e+01       7.678e-01           0.027          -0.023           0.999       1.367e-01         -0.1505
 943       1.674e+01       2.528e+01       7.557e-01           0.052          -0.036           0.998       1.328e-01         -0.1116
 944       1.703e+01       2.528e+01       7.377e-01           0.073          -0.047           0.996       1.214e-01         -0.0671
 945       1.729e+01       2.528e+01       7.169e-01           0.091          -0.054           0.994       1.028e-01         -0.0150
 946       1.749e+01       2.528e+01       6.971e-01           0.104          -0.060           0.993       7.811e-02          0.0454
 947       1.764e+01       2.528e+01       6.817e-01           0.112          -0.064           0.992       4.881e-02          0.0988
 948       1.771e+01       2.528e+01       6.713e-01           0.214          -0.099           0.972       1.692e-02          0.1581
Strip 37
 949       1.783e+01       2.564e+01       6.719e-01           0.241          -0.057          -0.969       9.908e-03          0.1526
 950       1.776e+01       2.564e+01       6.599e-01           0.140          -0.022          -0.990       2.851e-02          0.0906
 951       1.762e+01       2.564e+01       6.409e-01           0.132          -0.020          -0.991       4.561e-02          0.0441
 952       1.742e+01       2.564e+01       6.160e-01           0.119          -0.016          -0.993       6.000e-02         -0.0067
 953       1.718e+01       2.564e+01       5.888e-01           0.102          -0.010          -0.995       7.083e-02         -0.0489
 954       1.690e+01       2.564e+01       5.633e-01           0.081          -0.002          -0.997       7.751e-02         -0.0847
 955       1.660e+01       2.564e+01       5.428e-01           0.057           0.007          -0.998       7.968e-02         -0.1146
 956       1.631e+01       2.564e+01       5.299e-01           0.030           0.019          -0.999       7.727e-02         -0.1410
 957       1.603e+01       2.564e+01       5.252e-01           0.002           0.032          -0.999       7.043e-02         -0.1707
 958       1.578e+01       2.564e+01       5.282e-01          -0.030           0.048          -0.998       5.958e-02         -0.2168
 959       1.558e+01       2.564e+01       5.382e-01          -0.077           0.074          -0.994       4.537e-02         -0.3002
 960       1.544e+01       2.564e+01       5.544e-01          -0.174           0.130          -0.976       2.881e-02         -0.5730
 961       1.537e+01       2.564e+01       5.795e-01          -0.608           0.380          -0.697       1.358e-02         -0.2876
 962       1.537e+01       2.564e+01       6.208e-01          -0.735           0.428           0.526       1.856e-02          0.6110
 963       1.544e+01       2.564e+01       6.758e-01          -0.461           0.259           0.848       3.347e-02          0.0176
 964       1.558e+01       2.563e+01       7.254e-01          -0.230           0.122           0.966       4.691e-02         -0.3192
 965       1.578e+01       2.563e+01       7.560e-01          -0.091           0.042           0.995       5.987e-02         -0.2984
 966       1.603e+01       2.563e+01       7.707e-01          -0.032           0.009           0.999       7.045e-02         -0.2072
 967       1.631e+01       2.563e+01       7.752e-01          -0.001          -0.008           1.000       7.718e-02         -0.1528
 968       1.660e+01       2.563e+01       7.715e-01           0.025          -0.023           0.999       7.951e-02         -0.1200
 969       1.690e+01       2.563e+01       7.604e-01           0.050          -0.035           0.998       7.728e-02         -0.0890
 970       1.718e+01       2.563e+01       7.434e-01           0.072          -0.046           0.996       7.059e-02         -0.0532
 971       1.742e+01       2.563e+01       7.238e-01           0.089          -0.054           0.995       5.977e-02         -0.0107
 972       1.762e+01       2.563e+01       7.050e-01           0.102          -0.060           0.993       4.543e-02          0.0407
 973       1.776e+01       2.564e+01       6.903e-01           0.111          -0.063           0.992       2.839e-02          0.0882
 974       1.783e+01       2.564e+01       6.804e-01           0.213          -0.099           0.972       9.839e-03          0.1450
Strip 38
 975       1.789e+01       2.581e+01       6.766e-01           0.241          -0.057          -0.969       3.251e-03          0.1149
 976       1.782e+01       2.581e+01       6.647e-01           0.141          -0.022          -0.990       9.354e-03          0.0625
 977       1.769e+01       2.581e+01       6.460e-01           0.133          -0.020          -0.991       1.497e-02          0.0333
 978       1.749e+01       2.581e+01       6.214e-01           0.120          -0.016          -0.993       1.969e-02         -0.0044
 979       1.725e+01       2.581e+01       5.945e-01           0.103          -0.011          -0.995       2.324e-02         -0.0376
 980       1.698e+01       2.581e+01       5.691e-01           0.082          -0.003          -0.997       2.543e-02         -0.0663
 981       1.669e+01       2.582e+01       5.489e-01           0.058           0.007          -0.998       2.614e-02         -0.0903
 982       1.639e+01       2.582e+01       5.359e-01           0.031           0.018          -0.999       2.535e-02         -0.1107
 983       1.612e+01       2.582e+01       5.310e-01           0.003           0.031          -1.000       2.311e-02         -0.1322
 984       1.588e+01       2.582e+01       5.338e-01          -0.029           0.048          -0.998       1.954e-02         -0.1656
 985       1.569e+01       2.582e+01       5.435e-01          -0.076           0.074          -0.994       1.488e-02         -0.2373
 986       1.555e+01       2.581e+01       5.592e-01          -0.174           0.129          -0.976       9.449e-03         -0.5047
 987       1.548e+01       2.581e+01       5.838e-01          -0.608           0.380          -0.697       4.453e-03         -0.1940
 988       1.548e+01       2.581e+01       6.244e-01          -0.735           0.428           0.526       6.092e-03          0.5302
 989       1.555e+01       2.581e+01       6.784e-01          -0.462           0.260           0.848       1.099e-02         -0.0464
 990       1.569e+01       2.581e+01       7.272e-01          -0.230           0.122           0.965       1.539e-02         -0.2658
 991       1.588e+01       2.581e+01       7.575e-01          -0.092           0.043           0.995       1.964e-02         -0.2242
 992       1.612e+01       2.581e+01       7.721e-01          -0.033           0.010           0.999       2.311e-02         -0.1545
 993       1.639e+01       2.581e+01       7.767e-01          -0.002          -0.008           1.000       2.532e-02         -0.1166
 994       1.669e+01       2.581e+01       7.734e-01           0.025          -0.022           0.999       2.608e-02         -0.0930
 995       1.698e+01       2.581e+01       7.627e-01           0.049          -0.035           0.998       2.535e-02         -0.0692
 996       1.725e+01       2.581e+01       7.463e-01           0.071          -0.045           0.996       2.315e-02         -0.0411
 997       1.749e+01       2.581e+01       7.272e-01           0.088          -0.053           0.995       1.961e-02         -0.0086
 998       1.769e+01       2.581e+01       7.089e-01           0.101          -0.059           0.993       1.490e-02          0.0286
 999       1.782e+01       2.581e+01       6.946e-01           0.110          -0.063           0.992       9.313e-03          0.0591
1000       1.789e+01       2.581e+01       6.850e-01           0.212          -0.098           0.972       3.227e-03          0.1062










